<?xml version="1.0" encoding="UTF-8"?>

<!-- generated on 11/25/18 08:16:18 by SUMO polyconvert Version 0.32.0
<?xml version="1.0" encoding="UTF-8"?>

<configuration xmlns:xsi="http://www.w3.org/2001/XMLSchema-instance" xsi:noNamespaceSchemaLocation="http://sumo.dlr.de/xsd/polyconvertConfiguration.xsd">

    <input>
        <net-file value="new_sumo/map.net.xml"/>
        <osm-files value="raw_osm/map.osm"/>
        <type-file value="typemap.xml"/>
    </input>

    <output>
        <output-file value="new_sumo/map.poly.xml"/>
    </output>

    <processing>
        <poi-layer-offset value="5"/>
    </processing>

    <report>
        <xml-validation value="auto"/>
    </report>

</configuration>
-->

<additional xmlns:xsi="http://www.w3.org/2001/XMLSchema-instance" xsi:noNamespaceSchemaLocation="http://sumo.dlr.de/xsd/additional_file.xsd">
    <location netOffset="-598260.50,-4122141.61" convBoundary="-1561.60,-839.22,1121.27,1435.06" origBoundary="-121.909658,37.233122,-121.879381,37.253462" projParameter="+proj=utm +zone=10 +ellps=WGS84 +datum=WGS84 +units=m +no_defs"/>

    <poly id="196470820" type="parking" color="184,184,179" fill="1" layer="-1.00" shape="72.59,466.95 83.68,474.66 143.26,446.21 128.69,410.26 233.20,364.82 260.94,434.56 247.30,440.56 295.20,555.55 314.23,556.49 318.89,524.56 224.31,311.41 216.73,308.72 170.95,336.61 126.19,380.15 72.59,466.95"/>
    <poly id="38025530" type="residential" color="235,235,227" fill="1" layer="-3.00" shape="1027.80,301.97 968.24,386.18 729.38,725.43 709.93,752.95 708.79,754.33 617.35,696.41 458.41,573.47 378.89,530.13 352.92,511.39 377.71,447.04 344.79,419.04 310.40,454.49 232.43,277.43 146.51,323.06 109.90,247.82 62.88,181.82 -10.26,273.35 -76.25,382.50 56.63,455.44 8.41,542.82 119.31,610.50 91.97,658.48 113.87,685.38 145.23,705.33 182.04,718.48 204.05,683.53 355.23,733.99 374.93,677.13 376.87,677.69 416.74,689.38 402.16,728.38 563.85,783.66 570.42,764.52 593.88,706.87 724.16,804.81 838.21,881.96 846.91,887.07 894.93,915.23 1028.36,1006.53 1037.85,1012.45 1093.93,1049.21 1111.14,1061.88 1088.98,1113.34 1121.27,1125.08 1045.69,1344.44 967.59,1317.01 942.78,1383.61 940.01,1396.85 942.49,1428.95 942.96,1435.06 726.30,1361.00 782.10,1185.30 691.25,1156.73 608.76,1130.80 591.72,1125.44 562.60,1217.09 558.65,1229.49 537.96,1294.62 298.33,1214.48 247.77,1175.98 12.66,1098.94 -0.60,1126.07 -150.18,1092.48 -284.65,1087.27 -598.12,1078.64 -1033.06,1070.83 -1166.26,1068.53 -1341.99,1057.41 -1399.76,1049.92 -1452.51,1003.06 -1487.57,938.98 -1519.18,908.29 -1561.60,889.60 -1514.02,780.14 -1469.78,805.78 -1447.48,766.41 -1493.78,738.88 -1486.59,722.93 -1355.22,512.54 -1217.04,594.63 -1171.05,516.98 -1311.37,435.22 -1245.77,306.47 -1203.96,246.30 -1117.80,104.01 -1046.24,145.72 -1019.99,102.44 -999.66,68.94 -899.20,125.30 -852.90,44.91 -943.16,-10.78 -1030.15,-60.31 -993.35,-122.01 -987.81,-206.10 -996.79,-351.02 -995.33,-476.87 -981.98,-520.56 -812.32,-517.48 -788.38,-558.11 -756.77,-613.11 -700.92,-706.64 -647.15,-681.31 -570.12,-822.04 -531.20,-839.22 -472.72,-821.22 -439.41,-790.02 -381.54,-711.40 -321.96,-648.27 -340.33,-620.14 -148.35,-498.10 -48.84,-542.43 52.55,-486.65 53.29,-419.92 55.54,-287.21 167.05,-121.38 314.62,-303.13 539.92,-192.36 573.37,-173.84 594.13,-150.08 548.55,-27.07 684.88,68.19 770.99,126.83 804.16,90.07 875.91,140.19 883.36,153.17 870.02,187.14 1027.80,301.97"/>
    <poly id="38774143" type="landuse" color="194,194,130" fill="1" layer="-3.00" shape="395.20,578.73 373.96,590.62 202.39,621.66 170.48,618.18 120.82,601.61 19.49,539.41 113.86,379.53 143.96,345.01 159.38,328.52 192.39,306.16 223.74,294.40 327.25,508.55 392.32,558.65 395.20,578.73"/>
    <poly id="38774143#1" type="shop" color="237,199,255" fill="1" layer="-1.00" shape="395.20,578.73 373.96,590.62 202.39,621.66 170.48,618.18 120.82,601.61 19.49,539.41 113.86,379.53 143.96,345.01 159.38,328.52 192.39,306.16 223.74,294.40 327.25,508.55 392.32,558.65 395.20,578.73"/>
</additional>
